
#======================================================================
# CRYSTAL DATA
#----------------------------------------------------------------------
data_VESTA_phase_1

_chemical_name_common                  'generated by phonopy                  '
_cell_length_a                         14.969876
_cell_length_b                         8.661222
_cell_length_c                         8.661222
_cell_angle_alpha                      120.432343
_cell_angle_beta                       54.649502
_cell_angle_gamma                      107.041306
_cell_volume                           789.752071
_space_group_name_H-M_alt              'P 1'
_space_group_IT_number                 1

loop_
_space_group_symop_operation_xyz
   'x, y, z'

loop_
   _atom_site_label
   _atom_site_occupancy
   _atom_site_fract_x
   _atom_site_fract_y
   _atom_site_fract_z
   _atom_site_adp_type
   _atom_site_U_iso_or_equiv
   _atom_site_type_symbol
   Ba1        1.0     0.031357     0.000039     0.247771    Uiso  ? Ba
   Ba2        1.0     0.531357     0.000039     0.247771    Uiso  ? Ba
   Ba3        1.0     0.031357     0.500039     0.247771    Uiso  ? Ba
   Ba4        1.0     0.531357     0.500039     0.247771    Uiso  ? Ba
   Ba5        1.0     0.031357     0.000039     0.747771    Uiso  ? Ba
   Ba6        1.0     0.531357     0.000039     0.747771    Uiso  ? Ba
   Ba7        1.0     0.031357     0.500039     0.747771    Uiso  ? Ba
   Ba8        1.0     0.531357     0.500039     0.747771    Uiso  ? Ba
   Ru1        1.0     0.271304     0.161954     0.345909    Uiso  ? Ru
   Ru2        1.0     0.771304     0.161954     0.345909    Uiso  ? Ru
   Ru3        1.0     0.271304     0.661954     0.345909    Uiso  ? Ru
   Ru4        1.0     0.771304     0.661954     0.345909    Uiso  ? Ru
   Ru5        1.0     0.271304     0.161954     0.845909    Uiso  ? Ru
   Ru6        1.0     0.771304     0.161954     0.845909    Uiso  ? Ru
   Ru7        1.0     0.271304     0.661954     0.845909    Uiso  ? Ru
   Ru8        1.0     0.771304     0.661954     0.845909    Uiso  ? Ru
   Ru9        1.0     0.271304     0.338124     0.169739    Uiso  ? Ru
   Ru10       1.0     0.771304     0.338124     0.169739    Uiso  ? Ru
   Ru11       1.0     0.271304     0.838124     0.169739    Uiso  ? Ru
   Ru12       1.0     0.771304     0.838124     0.169739    Uiso  ? Ru
   Ru13       1.0     0.271304     0.338124     0.669739    Uiso  ? Ru
   Ru14       1.0     0.771304     0.338124     0.669739    Uiso  ? Ru
   Ru15       1.0     0.271304     0.838124     0.669739    Uiso  ? Ru
   Ru16       1.0     0.771304     0.838124     0.669739    Uiso  ? Ru
   O1         1.0     0.389836     0.250039     0.139291    Uiso  ? O
   O2         1.0     0.889836     0.250039     0.139291    Uiso  ? O
   O3         1.0     0.389836     0.750039     0.139291    Uiso  ? O
   O4         1.0     0.889836     0.750039     0.139291    Uiso  ? O
   O5         1.0     0.389836     0.250039     0.639291    Uiso  ? O
   O6         1.0     0.889836     0.250039     0.639291    Uiso  ? O
   O7         1.0     0.389836     0.750039     0.639291    Uiso  ? O
   O8         1.0     0.889836     0.750039     0.639291    Uiso  ? O
   O9         1.0     0.123103     0.161300     0.494764    Uiso  ? O
   O10        1.0     0.623103     0.161300     0.494764    Uiso  ? O
   O11        1.0     0.123103     0.661300     0.494764    Uiso  ? O
   O12        1.0     0.623103     0.661300     0.494764    Uiso  ? O
   O13        1.0     0.123103     0.161300     0.994764    Uiso  ? O
   O14        1.0     0.623103     0.161300     0.994764    Uiso  ? O
   O15        1.0     0.123103     0.661300     0.994764    Uiso  ? O
   O16        1.0     0.623103     0.661300     0.994764    Uiso  ? O
   O17        1.0     0.123103     0.338778     0.317286    Uiso  ? O
   O18        1.0     0.623103     0.338778     0.317286    Uiso  ? O
   O19        1.0     0.123103     0.838778     0.317286    Uiso  ? O
   O20        1.0     0.623103     0.838778     0.317286    Uiso  ? O
   O21        1.0     0.123103     0.338778     0.817286    Uiso  ? O
   O22        1.0     0.623103     0.338778     0.817286    Uiso  ? O
   O23        1.0     0.123103     0.838778     0.817286    Uiso  ? O
   O24        1.0     0.623103     0.838778     0.817286    Uiso  ? O
