
#======================================================================
# CRYSTAL DATA
#----------------------------------------------------------------------
data_VESTA_phase_1

_chemical_name_common                  'generated by phonopy                  '
_cell_length_a                         9.373363
_cell_length_b                         9.373363
_cell_length_c                         6.597991
_cell_angle_alpha                      69.393105
_cell_angle_beta                       69.393105
_cell_angle_gamma                      72.659828
_cell_volume                           497.753490
_space_group_name_H-M_alt              'P 1'
_space_group_IT_number                 1

loop_
_space_group_symop_operation_xyz
   'x, y, z'

loop_
   _atom_site_label
   _atom_site_occupancy
   _atom_site_fract_x
   _atom_site_fract_y
   _atom_site_fract_z
   _atom_site_adp_type
   _atom_site_U_iso_or_equiv
   _atom_site_type_symbol
   Ba1        1.0     0.488000     0.487750     0.487125    Uiso  ? Ba
   Ba2        1.0     0.988000     0.487750     0.487125    Uiso  ? Ba
   Ba3        1.0     0.488000     0.987750     0.487125    Uiso  ? Ba
   Ba4        1.0     0.988000     0.987750     0.487125    Uiso  ? Ba
   Ba5        1.0     0.488000     0.487750     0.987125    Uiso  ? Ba
   Ba6        1.0     0.988000     0.487750     0.987125    Uiso  ? Ba
   Ba7        1.0     0.488000     0.987750     0.987125    Uiso  ? Ba
   Ba8        1.0     0.988000     0.987750     0.987125    Uiso  ? Ba
   Ru1        1.0     0.238000     0.237750     0.237125    Uiso  ? Ru
   Ru2        1.0     0.738000     0.237750     0.237125    Uiso  ? Ru
   Ru3        1.0     0.238000     0.737750     0.237125    Uiso  ? Ru
   Ru4        1.0     0.738000     0.737750     0.237125    Uiso  ? Ru
   Ru5        1.0     0.238000     0.237750     0.737125    Uiso  ? Ru
   Ru6        1.0     0.738000     0.237750     0.737125    Uiso  ? Ru
   Ru7        1.0     0.238000     0.737750     0.737125    Uiso  ? Ru
   Ru8        1.0     0.738000     0.737750     0.737125    Uiso  ? Ru
   O1         1.0     0.324684     0.324434     0.400441    Uiso  ? O
   O2         1.0     0.824684     0.324434     0.400441    Uiso  ? O
   O3         1.0     0.324684     0.824434     0.400441    Uiso  ? O
   O4         1.0     0.824684     0.824434     0.400441    Uiso  ? O
   O5         1.0     0.324684     0.324434     0.900441    Uiso  ? O
   O6         1.0     0.824684     0.324434     0.900441    Uiso  ? O
   O7         1.0     0.324684     0.824434     0.900441    Uiso  ? O
   O8         1.0     0.824684     0.824434     0.900441    Uiso  ? O
   O9         1.0     0.151316     0.151066     0.073809    Uiso  ? O
   O10        1.0     0.651316     0.151066     0.073809    Uiso  ? O
   O11        1.0     0.151316     0.651066     0.073809    Uiso  ? O
   O12        1.0     0.651316     0.651066     0.073809    Uiso  ? O
   O13        1.0     0.151316     0.151066     0.573809    Uiso  ? O
   O14        1.0     0.651316     0.151066     0.573809    Uiso  ? O
   O15        1.0     0.151316     0.651066     0.573809    Uiso  ? O
   O16        1.0     0.651316     0.651066     0.573809    Uiso  ? O
