
#======================================================================
# CRYSTAL DATA
#----------------------------------------------------------------------
data_VESTA_phase_1

_chemical_name_common                  'generated by phonopy                  '
_cell_length_a                         14.301587
_cell_length_b                         13.481764
_cell_length_c                         15.816619
_cell_angle_alpha                      46.043713
_cell_angle_beta                       124.418282
_cell_angle_gamma                      121.986549
_cell_volume                           1761.861586
_space_group_name_H-M_alt              'P 1'
_space_group_IT_number                 1

loop_
_space_group_symop_operation_xyz
   'x, y, z'

loop_
   _atom_site_label
   _atom_site_occupancy
   _atom_site_fract_x
   _atom_site_fract_y
   _atom_site_fract_z
   _atom_site_adp_type
   _atom_site_U_iso_or_equiv
   _atom_site_type_symbol
   Ba1        1.0     0.482147     0.461489     0.201952    Uiso  ? Ba
   Ba2        1.0     0.982147     0.461489     0.201952    Uiso  ? Ba
   Ba3        1.0     0.482147     0.961489     0.201952    Uiso  ? Ba
   Ba4        1.0     0.982147     0.961489     0.201952    Uiso  ? Ba
   Ba5        1.0     0.482147     0.461489     0.701952    Uiso  ? Ba
   Ba6        1.0     0.982147     0.461489     0.701952    Uiso  ? Ba
   Ba7        1.0     0.482147     0.961489     0.701952    Uiso  ? Ba
   Ba8        1.0     0.982147     0.961489     0.701952    Uiso  ? Ba
   Ba9        1.0     0.482147     0.461489     0.451952    Uiso  ? Ba
   Ba10       1.0     0.982147     0.461489     0.451952    Uiso  ? Ba
   Ba11       1.0     0.482147     0.961489     0.451952    Uiso  ? Ba
   Ba12       1.0     0.982147     0.961489     0.451952    Uiso  ? Ba
   Ba13       1.0     0.482147     0.461489     0.951952    Uiso  ? Ba
   Ba14       1.0     0.982147     0.461489     0.951952    Uiso  ? Ba
   Ba15       1.0     0.482147     0.961489     0.951952    Uiso  ? Ba
   Ba16       1.0     0.982147     0.961489     0.951952    Uiso  ? Ba
   Ru1        1.0     0.235021     0.214541     0.092485    Uiso  ? Ru
   Ru2        1.0     0.735021     0.214541     0.092485    Uiso  ? Ru
   Ru3        1.0     0.235021     0.714541     0.092485    Uiso  ? Ru
   Ru4        1.0     0.735021     0.714541     0.092485    Uiso  ? Ru
   Ru5        1.0     0.235021     0.214541     0.592485    Uiso  ? Ru
   Ru6        1.0     0.735021     0.214541     0.592485    Uiso  ? Ru
   Ru7        1.0     0.235021     0.714541     0.592485    Uiso  ? Ru
   Ru8        1.0     0.735021     0.714541     0.592485    Uiso  ? Ru
   Ru9        1.0     0.235021     0.214541     0.342485    Uiso  ? Ru
   Ru10       1.0     0.735021     0.214541     0.342485    Uiso  ? Ru
   Ru11       1.0     0.235021     0.714541     0.342485    Uiso  ? Ru
   Ru12       1.0     0.735021     0.714541     0.342485    Uiso  ? Ru
   Ru13       1.0     0.235021     0.214541     0.842485    Uiso  ? Ru
   Ru14       1.0     0.735021     0.214541     0.842485    Uiso  ? Ru
   Ru15       1.0     0.235021     0.714541     0.842485    Uiso  ? Ru
   Ru16       1.0     0.735021     0.714541     0.842485    Uiso  ? Ru
   O1         1.0     0.332367     0.141485     0.009164    Uiso  ? O
   O2         1.0     0.832367     0.141485     0.009164    Uiso  ? O
   O3         1.0     0.332367     0.641485     0.009164    Uiso  ? O
   O4         1.0     0.832367     0.641485     0.009164    Uiso  ? O
   O5         1.0     0.332367     0.141485     0.509164    Uiso  ? O
   O6         1.0     0.832367     0.141485     0.509164    Uiso  ? O
   O7         1.0     0.332367     0.641485     0.509164    Uiso  ? O
   O8         1.0     0.832367     0.641485     0.509164    Uiso  ? O
   O9         1.0     0.332367     0.141485     0.259164    Uiso  ? O
   O10        1.0     0.832367     0.141485     0.259164    Uiso  ? O
   O11        1.0     0.332367     0.641485     0.259164    Uiso  ? O
   O12        1.0     0.832367     0.641485     0.259164    Uiso  ? O
   O13        1.0     0.332367     0.141485     0.759164    Uiso  ? O
   O14        1.0     0.832367     0.141485     0.759164    Uiso  ? O
   O15        1.0     0.332367     0.641485     0.759164    Uiso  ? O
   O16        1.0     0.832367     0.641485     0.759164    Uiso  ? O
   O17        1.0     0.042235     0.289182     0.218512    Uiso  ? O
   O18        1.0     0.542235     0.289182     0.218512    Uiso  ? O
   O19        1.0     0.042235     0.789182     0.218512    Uiso  ? O
   O20        1.0     0.542235     0.789182     0.218512    Uiso  ? O
   O21        1.0     0.042235     0.289182     0.718512    Uiso  ? O
   O22        1.0     0.542235     0.289182     0.718512    Uiso  ? O
   O23        1.0     0.042235     0.789182     0.718512    Uiso  ? O
   O24        1.0     0.542235     0.789182     0.718512    Uiso  ? O
   O25        1.0     0.042235     0.289182     0.468512    Uiso  ? O
   O26        1.0     0.542235     0.289182     0.468512    Uiso  ? O
   O27        1.0     0.042235     0.789182     0.468512    Uiso  ? O
   O28        1.0     0.542235     0.789182     0.468512    Uiso  ? O
   O29        1.0     0.042235     0.289182     0.968512    Uiso  ? O
   O30        1.0     0.542235     0.289182     0.968512    Uiso  ? O
   O31        1.0     0.042235     0.789182     0.968512    Uiso  ? O
   O32        1.0     0.542235     0.789182     0.968512    Uiso  ? O
   O33        1.0     0.128921     0.073042     0.080512    Uiso  ? O
   O34        1.0     0.628921     0.073042     0.080512    Uiso  ? O
   O35        1.0     0.128921     0.573042     0.080512    Uiso  ? O
   O36        1.0     0.628921     0.573042     0.080512    Uiso  ? O
   O37        1.0     0.128921     0.073042     0.580512    Uiso  ? O
   O38        1.0     0.628921     0.073042     0.580512    Uiso  ? O
   O39        1.0     0.128921     0.573042     0.580512    Uiso  ? O
   O40        1.0     0.628921     0.573042     0.580512    Uiso  ? O
   O41        1.0     0.128921     0.073042     0.330512    Uiso  ? O
   O42        1.0     0.628921     0.073042     0.330512    Uiso  ? O
   O43        1.0     0.128921     0.573042     0.330512    Uiso  ? O
   O44        1.0     0.628921     0.573042     0.330512    Uiso  ? O
   O45        1.0     0.128921     0.073042     0.830512    Uiso  ? O
   O46        1.0     0.628921     0.073042     0.830512    Uiso  ? O
   O47        1.0     0.128921     0.573042     0.830512    Uiso  ? O
   O48        1.0     0.628921     0.573042     0.830512    Uiso  ? O
   O49        1.0     0.302276     0.392287     0.005286    Uiso  ? O
   O50        1.0     0.802276     0.392287     0.005286    Uiso  ? O
   O51        1.0     0.302276     0.892287     0.005286    Uiso  ? O
   O52        1.0     0.802276     0.892287     0.005286    Uiso  ? O
   O53        1.0     0.302276     0.392287     0.505286    Uiso  ? O
   O54        1.0     0.802276     0.392287     0.505286    Uiso  ? O
   O55        1.0     0.302276     0.892287     0.505286    Uiso  ? O
   O56        1.0     0.802276     0.892287     0.505286    Uiso  ? O
   O57        1.0     0.302276     0.392287     0.255286    Uiso  ? O
   O58        1.0     0.802276     0.392287     0.255286    Uiso  ? O
   O59        1.0     0.302276     0.892287     0.255286    Uiso  ? O
   O60        1.0     0.802276     0.892287     0.255286    Uiso  ? O
   O61        1.0     0.302276     0.392287     0.755286    Uiso  ? O
   O62        1.0     0.802276     0.392287     0.755286    Uiso  ? O
   O63        1.0     0.302276     0.892287     0.755286    Uiso  ? O
   O64        1.0     0.802276     0.892287     0.755286    Uiso  ? O
   O65        1.0     0.355374     0.172427     0.090688    Uiso  ? O
   O66        1.0     0.855374     0.172427     0.090688    Uiso  ? O
   O67        1.0     0.355374     0.672427     0.090688    Uiso  ? O
   O68        1.0     0.855374     0.672427     0.090688    Uiso  ? O
   O69        1.0     0.355374     0.172427     0.590688    Uiso  ? O
   O70        1.0     0.855374     0.172427     0.590688    Uiso  ? O
   O71        1.0     0.355374     0.672427     0.590688    Uiso  ? O
   O72        1.0     0.855374     0.672427     0.590688    Uiso  ? O
   O73        1.0     0.355374     0.172427     0.340688    Uiso  ? O
   O74        1.0     0.855374     0.172427     0.340688    Uiso  ? O
   O75        1.0     0.355374     0.672427     0.340688    Uiso  ? O
   O76        1.0     0.855374     0.672427     0.340688    Uiso  ? O
   O77        1.0     0.355374     0.172427     0.840688    Uiso  ? O
   O78        1.0     0.855374     0.172427     0.840688    Uiso  ? O
   O79        1.0     0.355374     0.672427     0.840688    Uiso  ? O
   O80        1.0     0.855374     0.672427     0.840688    Uiso  ? O
   O81        1.0     0.121659     0.255547     0.086150    Uiso  ? O
   O82        1.0     0.621659     0.255547     0.086150    Uiso  ? O
   O83        1.0     0.121659     0.755547     0.086150    Uiso  ? O
   O84        1.0     0.621659     0.755547     0.086150    Uiso  ? O
   O85        1.0     0.121659     0.255547     0.586150    Uiso  ? O
   O86        1.0     0.621659     0.255547     0.586150    Uiso  ? O
   O87        1.0     0.121659     0.755547     0.586150    Uiso  ? O
   O88        1.0     0.621659     0.755547     0.586150    Uiso  ? O
   O89        1.0     0.121659     0.255547     0.336150    Uiso  ? O
   O90        1.0     0.621659     0.255547     0.336150    Uiso  ? O
   O91        1.0     0.121659     0.755547     0.336150    Uiso  ? O
   O92        1.0     0.621659     0.755547     0.336150    Uiso  ? O
   O93        1.0     0.121659     0.255547     0.836150    Uiso  ? O
   O94        1.0     0.621659     0.255547     0.836150    Uiso  ? O
   O95        1.0     0.121659     0.755547     0.836150    Uiso  ? O
   O96        1.0     0.621659     0.755547     0.836150    Uiso  ? O
