
#======================================================================
# CRYSTAL DATA
#----------------------------------------------------------------------
data_VESTA_phase_1

_chemical_name_common                  'generated by phonopy                  '
_cell_length_a                         15.890826
_cell_length_b                         15.890826
_cell_length_c                         15.890826
_cell_angle_alpha                      42.232933
_cell_angle_beta                       42.232933
_cell_angle_gamma                      42.232933
_cell_volume                           1640.636898
_space_group_name_H-M_alt              'P 1'
_space_group_IT_number                 1

loop_
_space_group_symop_operation_xyz
   'x, y, z'

loop_
   _atom_site_label
   _atom_site_occupancy
   _atom_site_fract_x
   _atom_site_fract_y
   _atom_site_fract_z
   _atom_site_adp_type
   _atom_site_U_iso_or_equiv
   _atom_site_type_symbol
   Ba1        1.0     0.390697     0.390697     0.390697    Uiso  ? Ba
   Ba2        1.0     0.890697     0.390697     0.390697    Uiso  ? Ba
   Ba3        1.0     0.390697     0.890697     0.390697    Uiso  ? Ba
   Ba4        1.0     0.890697     0.890697     0.390697    Uiso  ? Ba
   Ba5        1.0     0.390697     0.390697     0.890697    Uiso  ? Ba
   Ba6        1.0     0.890697     0.390697     0.890697    Uiso  ? Ba
   Ba7        1.0     0.390697     0.890697     0.890697    Uiso  ? Ba
   Ba8        1.0     0.890697     0.890697     0.890697    Uiso  ? Ba
   Ba9        1.0     0.109303     0.109303     0.109303    Uiso  ? Ba
   Ba10       1.0     0.609303     0.109303     0.109303    Uiso  ? Ba
   Ba11       1.0     0.109303     0.609303     0.109303    Uiso  ? Ba
   Ba12       1.0     0.609303     0.609303     0.109303    Uiso  ? Ba
   Ba13       1.0     0.109303     0.109303     0.609303    Uiso  ? Ba
   Ba14       1.0     0.609303     0.109303     0.609303    Uiso  ? Ba
   Ba15       1.0     0.109303     0.609303     0.609303    Uiso  ? Ba
   Ba16       1.0     0.609303     0.609303     0.609303    Uiso  ? Ba
   Ba17       1.0     0.000000     0.000000     0.000000    Uiso  ? Ba
   Ba18       1.0     0.500000     0.000000     0.000000    Uiso  ? Ba
   Ba19       1.0     0.000000     0.500000     0.000000    Uiso  ? Ba
   Ba20       1.0     0.500000     0.500000     0.000000    Uiso  ? Ba
   Ba21       1.0     0.000000     0.000000     0.500000    Uiso  ? Ba
   Ba22       1.0     0.500000     0.000000     0.500000    Uiso  ? Ba
   Ba23       1.0     0.000000     0.500000     0.500000    Uiso  ? Ba
   Ba24       1.0     0.500000     0.500000     0.500000    Uiso  ? Ba
   O1         1.0     0.250000     0.250000     0.000000    Uiso  ? O
   O2         1.0     0.750000     0.250000     0.000000    Uiso  ? O
   O3         1.0     0.250000     0.750000     0.000000    Uiso  ? O
   O4         1.0     0.750000     0.750000     0.000000    Uiso  ? O
   O5         1.0     0.250000     0.250000     0.500000    Uiso  ? O
   O6         1.0     0.750000     0.250000     0.500000    Uiso  ? O
   O7         1.0     0.250000     0.750000     0.500000    Uiso  ? O
   O8         1.0     0.750000     0.750000     0.500000    Uiso  ? O
   O9         1.0     0.142083     0.142083     0.377933    Uiso  ? O
   O10        1.0     0.642083     0.142083     0.377933    Uiso  ? O
   O11        1.0     0.142083     0.642083     0.377933    Uiso  ? O
   O12        1.0     0.642083     0.642083     0.377933    Uiso  ? O
   O13        1.0     0.142083     0.142083     0.877933    Uiso  ? O
   O14        1.0     0.642083     0.142083     0.877933    Uiso  ? O
   O15        1.0     0.142083     0.642083     0.877933    Uiso  ? O
   O16        1.0     0.642083     0.642083     0.877933    Uiso  ? O
   O17        1.0     0.122067     0.357917     0.357917    Uiso  ? O
   O18        1.0     0.622067     0.357917     0.357917    Uiso  ? O
   O19        1.0     0.122067     0.857917     0.357917    Uiso  ? O
   O20        1.0     0.622067     0.857917     0.357917    Uiso  ? O
   O21        1.0     0.122067     0.357917     0.857917    Uiso  ? O
   O22        1.0     0.622067     0.357917     0.857917    Uiso  ? O
   O23        1.0     0.122067     0.857917     0.857917    Uiso  ? O
   O24        1.0     0.622067     0.857917     0.857917    Uiso  ? O
   O25        1.0     0.357917     0.122067     0.357917    Uiso  ? O
   O26        1.0     0.857917     0.122067     0.357917    Uiso  ? O
   O27        1.0     0.357917     0.622067     0.357917    Uiso  ? O
   O28        1.0     0.857917     0.622067     0.357917    Uiso  ? O
   O29        1.0     0.357917     0.122067     0.857917    Uiso  ? O
   O30        1.0     0.857917     0.122067     0.857917    Uiso  ? O
   O31        1.0     0.357917     0.622067     0.857917    Uiso  ? O
   O32        1.0     0.857917     0.622067     0.857917    Uiso  ? O
   O33        1.0     0.250000     0.000000     0.250000    Uiso  ? O
   O34        1.0     0.750000     0.000000     0.250000    Uiso  ? O
   O35        1.0     0.250000     0.500000     0.250000    Uiso  ? O
   O36        1.0     0.750000     0.500000     0.250000    Uiso  ? O
   O37        1.0     0.250000     0.000000     0.750000    Uiso  ? O
   O38        1.0     0.750000     0.000000     0.750000    Uiso  ? O
   O39        1.0     0.250000     0.500000     0.750000    Uiso  ? O
   O40        1.0     0.750000     0.500000     0.750000    Uiso  ? O
   O41        1.0     0.000000     0.250000     0.250000    Uiso  ? O
   O42        1.0     0.500000     0.250000     0.250000    Uiso  ? O
   O43        1.0     0.000000     0.750000     0.250000    Uiso  ? O
   O44        1.0     0.500000     0.750000     0.250000    Uiso  ? O
   O45        1.0     0.000000     0.250000     0.750000    Uiso  ? O
   O46        1.0     0.500000     0.250000     0.750000    Uiso  ? O
   O47        1.0     0.000000     0.750000     0.750000    Uiso  ? O
   O48        1.0     0.500000     0.750000     0.750000    Uiso  ? O
   O49        1.0     0.142083     0.377933     0.142083    Uiso  ? O
   O50        1.0     0.642083     0.377933     0.142083    Uiso  ? O
   O51        1.0     0.142083     0.877933     0.142083    Uiso  ? O
   O52        1.0     0.642083     0.877933     0.142083    Uiso  ? O
   O53        1.0     0.142083     0.377933     0.642083    Uiso  ? O
   O54        1.0     0.642083     0.377933     0.642083    Uiso  ? O
   O55        1.0     0.142083     0.877933     0.642083    Uiso  ? O
   O56        1.0     0.642083     0.877933     0.642083    Uiso  ? O
   O57        1.0     0.377933     0.142083     0.142083    Uiso  ? O
   O58        1.0     0.877933     0.142083     0.142083    Uiso  ? O
   O59        1.0     0.377933     0.642083     0.142083    Uiso  ? O
   O60        1.0     0.877933     0.642083     0.142083    Uiso  ? O
   O61        1.0     0.377933     0.142083     0.642083    Uiso  ? O
   O62        1.0     0.877933     0.142083     0.642083    Uiso  ? O
   O63        1.0     0.377933     0.642083     0.642083    Uiso  ? O
   O64        1.0     0.877933     0.642083     0.642083    Uiso  ? O
   O65        1.0     0.357917     0.357917     0.122067    Uiso  ? O
   O66        1.0     0.857917     0.357917     0.122067    Uiso  ? O
   O67        1.0     0.357917     0.857917     0.122067    Uiso  ? O
   O68        1.0     0.857917     0.857917     0.122067    Uiso  ? O
   O69        1.0     0.357917     0.357917     0.622067    Uiso  ? O
   O70        1.0     0.857917     0.357917     0.622067    Uiso  ? O
   O71        1.0     0.357917     0.857917     0.622067    Uiso  ? O
   O72        1.0     0.857917     0.857917     0.622067    Uiso  ? O
   Ru1        1.0     0.308389     0.308389     0.308389    Uiso  ? Ru
   Ru2        1.0     0.808389     0.308389     0.308389    Uiso  ? Ru
   Ru3        1.0     0.308389     0.808389     0.308389    Uiso  ? Ru
   Ru4        1.0     0.808389     0.808389     0.308389    Uiso  ? Ru
   Ru5        1.0     0.308389     0.308389     0.808389    Uiso  ? Ru
   Ru6        1.0     0.808389     0.308389     0.808389    Uiso  ? Ru
   Ru7        1.0     0.308389     0.808389     0.808389    Uiso  ? Ru
   Ru8        1.0     0.808389     0.808389     0.808389    Uiso  ? Ru
   Ru9        1.0     0.250000     0.250000     0.250000    Uiso  ? Ru
   Ru10       1.0     0.750000     0.250000     0.250000    Uiso  ? Ru
   Ru11       1.0     0.250000     0.750000     0.250000    Uiso  ? Ru
   Ru12       1.0     0.750000     0.750000     0.250000    Uiso  ? Ru
   Ru13       1.0     0.250000     0.250000     0.750000    Uiso  ? Ru
   Ru14       1.0     0.750000     0.250000     0.750000    Uiso  ? Ru
   Ru15       1.0     0.250000     0.750000     0.750000    Uiso  ? Ru
   Ru16       1.0     0.750000     0.750000     0.750000    Uiso  ? Ru
   Ru17       1.0     0.191611     0.191611     0.191611    Uiso  ? Ru
   Ru18       1.0     0.691611     0.191611     0.191611    Uiso  ? Ru
   Ru19       1.0     0.191611     0.691611     0.191611    Uiso  ? Ru
   Ru20       1.0     0.691611     0.691611     0.191611    Uiso  ? Ru
   Ru21       1.0     0.191611     0.191611     0.691611    Uiso  ? Ru
   Ru22       1.0     0.691611     0.191611     0.691611    Uiso  ? Ru
   Ru23       1.0     0.191611     0.691611     0.691611    Uiso  ? Ru
   Ru24       1.0     0.691611     0.691611     0.691611    Uiso  ? Ru
